Version 4
SHEET 1 880 680
WIRE 160 128 96 128
WIRE 160 160 128 160
WIRE 320 160 288 160
WIRE 128 176 128 160
WIRE 160 192 96 192
FLAG 128 176 0
FLAG 96 128 A
IOPIN 96 128 In
FLAG 96 192 VDD
IOPIN 96 192 In
FLAG 320 160 OUT
IOPIN 320 160 Out
SYMBOL ANDgdi 224 160 R0
SYMATTR InstName X1
