Version 4
SHEET 1 880 680
WIRE 320 48 224 48
WIRE 96 64 -208 64
WIRE 112 64 96 64
WIRE 320 80 224 80
WIRE 80 96 -208 96
WIRE 112 96 80 96
WIRE 320 112 224 112
WIRE 112 128 48 128
WIRE 320 144 224 144
WIRE -176 176 -208 176
WIRE -160 176 -176 176
WIRE 48 192 48 128
WIRE 48 192 -32 192
WIRE -160 208 -208 208
WIRE 320 272 224 272
WIRE 96 288 96 64
WIRE 112 288 96 288
WIRE 320 304 224 304
WIRE 80 320 80 96
WIRE 112 320 80 320
WIRE 320 336 224 336
WIRE -176 352 -176 176
WIRE 112 352 -176 352
WIRE 320 368 224 368
FLAG -208 64 I0
IOPIN -208 64 In
FLAG -208 96 I1
IOPIN -208 96 In
FLAG -208 176 I2
IOPIN -208 176 In
FLAG 320 48 D0
IOPIN 320 48 Out
FLAG 320 80 D1
IOPIN 320 80 Out
FLAG 320 112 D2
IOPIN 320 112 Out
FLAG 320 144 D3
IOPIN 320 144 Out
FLAG 320 272 D4
IOPIN 320 272 Out
FLAG 320 304 D5
IOPIN 320 304 Out
FLAG 320 336 D6
IOPIN 320 336 Out
FLAG 320 368 D7
IOPIN 320 368 Out
FLAG -208 208 VDD
IOPIN -208 208 In
SYMBOL Dec2to4 160 96 R0
SYMATTR InstName X1
SYMBOL Dec2to4 160 320 R0
SYMATTR InstName X2
SYMBOL INVgdi -96 192 R0
SYMATTR InstName X3
