Version 4
SHEET 1 880 1128
WIRE 64 -208 -48 -208
WIRE 64 -176 -48 -176
WIRE 528 -176 384 -176
WIRE 64 -144 -48 -144
WIRE 64 -112 -48 -112
WIRE 528 -112 384 -112
WIRE 64 -64 -48 -64
WIRE 528 -48 384 -48
WIRE 64 -32 -48 -32
WIRE 64 0 -48 0
WIRE 528 16 384 16
WIRE 64 32 -48 32
WIRE 64 80 -48 80
WIRE 416 112 384 112
WIRE 48 128 -48 128
WIRE 64 128 48 128
WIRE 288 208 288 176
WIRE 432 208 288 208
WIRE 224 224 224 176
WIRE 448 224 224 224
WIRE 160 240 160 176
WIRE 464 240 160 240
WIRE 416 272 416 112
WIRE 416 272 16 272
WIRE 64 512 -48 512
WIRE 64 544 -48 544
WIRE 528 544 400 544
WIRE 64 576 -48 576
WIRE 64 608 -48 608
WIRE 528 608 384 608
WIRE 64 656 -48 656
WIRE 528 672 384 672
WIRE 64 688 -48 688
WIRE 64 720 -48 720
WIRE 528 736 384 736
WIRE 64 752 -48 752
WIRE 16 800 16 272
WIRE 64 800 16 800
WIRE 528 832 384 832
WIRE 48 848 48 128
WIRE 64 848 48 848
WIRE 288 912 288 896
WIRE 432 912 432 208
WIRE 432 912 288 912
WIRE 224 928 224 896
WIRE 448 928 448 224
WIRE 448 928 224 928
WIRE 160 944 160 896
WIRE 464 944 464 240
WIRE 464 944 160 944
WIRE 160 1040 160 944
WIRE 224 1040 224 928
WIRE 288 1040 288 912
FLAG -48 -208 A0
IOPIN -48 -208 In
FLAG -48 -176 A1
IOPIN -48 -176 In
FLAG -48 -144 A2
IOPIN -48 -144 In
FLAG -48 -112 A3
IOPIN -48 -112 In
FLAG -48 512 A4
IOPIN -48 512 In
FLAG -48 544 A5
IOPIN -48 544 In
FLAG -48 576 A6
IOPIN -48 576 In
FLAG -48 608 A7
IOPIN -48 608 In
FLAG -48 -64 B0
IOPIN -48 -64 In
FLAG -48 -32 B1
IOPIN -48 -32 In
FLAG -48 0 B2
IOPIN -48 0 In
FLAG -48 32 B3
IOPIN -48 32 In
FLAG -48 656 B4
IOPIN -48 656 In
FLAG -48 688 B5
IOPIN -48 688 In
FLAG -48 720 B6
IOPIN -48 720 In
FLAG -48 752 B7
IOPIN -48 752 In
FLAG -48 80 CIN/BorrIn
IOPIN -48 80 In
FLAG -48 128 VDD
IOPIN -48 128 In
FLAG 160 1040 S0
IOPIN 160 1040 In
FLAG 224 1040 S1
IOPIN 224 1040 In
FLAG 288 1040 S2
IOPIN 288 1040 In
FLAG 528 -176 OUT0
IOPIN 528 -176 Out
FLAG 528 -112 OUT1
IOPIN 528 -112 Out
FLAG 528 -48 OUT2
IOPIN 528 -48 Out
FLAG 528 16 OUT3
IOPIN 528 16 Out
FLAG 528 544 OUT4
IOPIN 528 544 Out
FLAG 528 608 OUT5
IOPIN 528 608 Out
FLAG 528 672 OUT6
IOPIN 528 672 Out
FLAG 528 736 OUT7
IOPIN 528 736 Out
FLAG 528 832 ALU_COUT
IOPIN 528 832 Out
SYMBOL FourBtALU 224 -32 R0
SYMATTR InstName X1
SYMBOL FourBtALU 224 688 R0
SYMATTR InstName X2
