Version 4
SHEET 1 880 1380
WIRE 80 48 -32 48
WIRE 80 80 -32 80
WIRE 384 96 288 96
WIRE 80 112 -32 112
WIRE 48 160 -32 160
WIRE 80 160 48 160
WIRE 368 160 288 160
WIRE 224 272 224 240
WIRE 304 272 304 -160
WIRE 304 272 224 272
WIRE 176 288 176 240
WIRE 320 288 320 -96
WIRE 320 288 176 288
WIRE 128 304 128 240
WIRE 336 304 336 -32
WIRE 336 304 128 304
WIRE 368 320 368 160
WIRE 368 320 64 320
WIRE 80 400 -16 400
WIRE 80 432 -16 432
WIRE 384 448 288 448
WIRE 64 464 64 320
WIRE 80 464 64 464
WIRE 48 512 48 160
WIRE 80 512 48 512
WIRE 352 512 288 512
WIRE 224 608 224 592
WIRE 304 608 304 272
WIRE 304 608 224 608
WIRE 176 624 176 592
WIRE 320 624 320 288
WIRE 320 624 176 624
WIRE 128 640 128 592
WIRE 336 640 336 304
WIRE 336 640 128 640
WIRE 352 688 352 512
WIRE 352 688 64 688
WIRE 80 768 -16 768
WIRE 80 800 -16 800
WIRE 384 816 288 816
WIRE 64 832 64 688
WIRE 80 832 64 832
WIRE 48 880 48 512
WIRE 80 880 48 880
WIRE 352 880 288 880
WIRE 224 976 224 960
WIRE 304 976 304 608
WIRE 304 976 224 976
WIRE 176 992 176 960
WIRE 320 992 320 624
WIRE 320 992 176 992
WIRE 128 1008 128 960
WIRE 336 1008 336 640
WIRE 336 1008 128 1008
WIRE 352 1056 352 880
WIRE 352 1056 64 1056
WIRE 80 1136 -16 1136
WIRE 80 1168 -16 1168
WIRE 400 1184 288 1184
WIRE 64 1200 64 1056
WIRE 80 1200 64 1200
WIRE 48 1248 48 880
WIRE 80 1248 48 1248
WIRE 400 1248 288 1248
WIRE 224 1344 224 1328
WIRE 304 1344 304 976
WIRE 304 1344 224 1344
WIRE 176 1360 176 1328
WIRE 320 1360 320 992
WIRE 320 1360 176 1360
WIRE 128 1376 128 1328
WIRE 336 1376 336 1008
WIRE 336 1376 128 1376
FLAG 384 96 OUT0
IOPIN 384 96 Out
FLAG 384 448 OUT1
IOPIN 384 448 Out
FLAG 384 816 OUT2
IOPIN 384 816 Out
FLAG 400 1184 OUT3
IOPIN 400 1184 Out
FLAG 400 1248 ALU_COUT
IOPIN 400 1248 Out
FLAG -32 48 A0
IOPIN -32 48 In
FLAG -32 80 B0
IOPIN -32 80 In
FLAG -32 112 CIN/BorrIN
IOPIN -32 112 In
FLAG -32 160 VDD
IOPIN -32 160 In
FLAG -16 400 A1
IOPIN -16 400 In
FLAG -16 432 B1
IOPIN -16 432 In
FLAG -16 768 A2
IOPIN -16 768 In
FLAG -16 800 B2
IOPIN -16 800 In
FLAG -16 1136 A3
IOPIN -16 1136 In
FLAG -16 1168 B3
IOPIN -16 1168 In
FLAG 304 -160 S2
IOPIN 304 -160 In
FLAG 320 -96 S1
IOPIN 320 -96 In
FLAG 336 -32 S0
IOPIN 336 -32 In
SYMBOL OneBitALU 176 128 R0
SYMATTR InstName X1
SYMBOL OneBitALU 176 480 R0
SYMATTR InstName X2
SYMBOL OneBitALU 176 848 R0
SYMATTR InstName X3
SYMBOL OneBitALU 176 1216 R0
SYMATTR InstName X4
