Version 4
SHEET 1 880 680
WIRE 32 96 -96 96
WIRE 288 112 176 112
WIRE 32 128 -96 128
WIRE 720 128 432 128
WIRE 240 144 176 144
WIRE 288 144 256 144
WIRE 16 160 -96 160
WIRE 32 160 16 160
WIRE 496 160 432 160
WIRE 288 176 272 176
WIRE 16 208 16 160
WIRE 272 208 272 176
WIRE 272 208 16 208
WIRE 256 272 256 144
WIRE 256 272 -96 272
WIRE 496 272 496 160
WIRE 528 272 496 272
WIRE 240 304 240 144
WIRE 528 304 240 304
WIRE 720 304 656 304
WIRE 272 336 272 208
WIRE 528 336 272 336
FLAG -96 96 A
IOPIN -96 96 In
FLAG -96 128 B
IOPIN -96 128 In
FLAG -96 160 VDD
IOPIN -96 160 In
FLAG -96 272 CIN
IOPIN -96 272 In
FLAG 720 128 DIFF
IOPIN 720 128 Out
FLAG 720 304 BORR
IOPIN 720 304 Out
SYMBOL HALFSUB 96 128 R0
SYMATTR InstName X1
SYMBOL HALFSUB 352 144 R0
SYMATTR InstName X2
SYMBOL ORgdi 592 304 R0
SYMATTR InstName X3
