Version 4
SHEET 1 880 680
WIRE 48 96 -112 96
WIRE 352 112 208 112
WIRE 48 128 -112 128
WIRE 720 128 512 128
WIRE 304 144 208 144
WIRE 352 144 320 144
WIRE 32 160 -112 160
WIRE 48 160 32 160
WIRE 544 160 512 160
WIRE 352 176 336 176
WIRE 32 208 32 160
WIRE 336 208 336 176
WIRE 336 208 32 208
WIRE 320 272 320 144
WIRE 320 272 -112 272
WIRE 544 272 544 160
WIRE 576 272 544 272
WIRE 304 304 304 144
WIRE 576 304 304 304
WIRE 720 304 704 304
WIRE 336 336 336 208
WIRE 576 336 336 336
FLAG -112 96 A
IOPIN -112 96 In
FLAG -112 128 B
IOPIN -112 128 In
FLAG -112 160 VDD
IOPIN -112 160 In
FLAG -112 272 CIN
IOPIN -112 272 In
FLAG 720 128 SUM
IOPIN 720 128 Out
FLAG 720 304 CARRY
IOPIN 720 304 Out
SYMBOL HALFADDER 128 128 R0
SYMATTR InstName X1
SYMBOL HALFADDER 432 144 R0
SYMATTR InstName X2
SYMBOL ORgdi 640 304 R0
SYMATTR InstName X3
