Version 4
SHEET 1 880 680
WIRE 128 80 16 80
WIRE 144 80 128 80
WIRE 80 112 16 112
WIRE 144 112 80 112
WIRE 592 112 272 112
WIRE 112 144 16 144
WIRE 144 144 112 144
WIRE 128 224 128 80
WIRE 144 224 128 224
WIRE 384 240 272 240
WIRE 112 256 112 144
WIRE 144 256 112 256
WIRE 384 272 352 272
WIRE 592 272 512 272
WIRE 112 304 112 256
WIRE 384 304 112 304
WIRE 80 336 80 112
WIRE 352 336 352 272
WIRE 352 336 80 336
FLAG 16 80 A
IOPIN 16 80 In
FLAG 16 112 B
IOPIN 16 112 In
FLAG 16 144 VDD
IOPIN 16 144 In
FLAG 592 112 DIFF
IOPIN 592 112 Out
FLAG 592 272 BORR
IOPIN 592 272 Out
SYMBOL XORgdi 208 112 R0
SYMATTR InstName X1
SYMBOL INVgdi 208 240 R0
SYMATTR InstName X2
SYMBOL ANDgdi 448 272 R0
SYMATTR InstName X3
