Version 4
SHEET 1 880 680
WIRE 144 96 80 96
WIRE 160 96 144 96
WIRE 128 128 80 128
WIRE 160 128 128 128
WIRE 416 128 288 128
WIRE 112 160 80 160
WIRE 160 160 112 160
WIRE 144 240 144 96
WIRE 160 240 144 240
WIRE 128 272 128 128
WIRE 160 272 128 272
WIRE 416 272 288 272
WIRE 112 304 112 160
WIRE 160 304 112 304
FLAG 80 96 A
IOPIN 80 96 In
FLAG 80 128 B
IOPIN 80 128 In
FLAG 80 160 VDD
IOPIN 80 160 In
FLAG 416 128 SUM
IOPIN 416 128 Out
FLAG 416 272 CARRY
IOPIN 416 272 Out
SYMBOL XORgdi 224 128 R0
SYMATTR InstName X1
SYMBOL ANDgdi 224 272 R0
SYMATTR InstName X2
