Version 4
SHEET 1 880 680
WIRE 128 112 80 112
WIRE 128 144 80 144
WIRE 336 160 256 160
WIRE 128 176 80 176
WIRE 128 208 80 208
FLAG 80 112 S
IOPIN 80 112 In
FLAG 80 144 I1
IOPIN 80 144 In
FLAG 80 176 I0
IOPIN 80 176 In
FLAG 80 208 VDD
IOPIN 80 208 In
FLAG 336 160 OUT
IOPIN 336 160 Out
SYMBOL GDICell 192 160 R0
SYMATTR InstName X1
