Version 4
SHEET 1 880 680
WIRE 32 112 -32 112
WIRE 32 144 -32 144
WIRE 240 144 160 144
WIRE 448 160 368 160
WIRE 16 176 -32 176
WIRE 32 176 16 176
WIRE 240 176 224 176
WIRE 16 224 16 176
WIRE 224 224 224 176
WIRE 224 224 16 224
FLAG -32 112 A
IOPIN -32 112 In
FLAG -32 144 B
IOPIN -32 144 In
FLAG -32 176 VDD
IOPIN -32 176 In
FLAG 448 160 OUT
IOPIN 448 160 Out
SYMBOL ANDgdi 96 144 R0
SYMATTR InstName X1
SYMBOL INVgdi 304 160 R0
SYMATTR InstName X2
