Version 4
SHEET 1 880 680
WIRE 80 112 32 112
WIRE 80 144 32 144
WIRE 288 144 208 144
WIRE 496 160 416 160
WIRE 64 176 32 176
WIRE 80 176 64 176
WIRE 288 176 272 176
WIRE 64 224 64 176
WIRE 272 224 272 176
WIRE 272 224 64 224
FLAG 32 112 A
IOPIN 32 112 In
FLAG 32 144 B
IOPIN 32 144 In
FLAG 32 176 VDD
IOPIN 32 176 In
FLAG 496 160 OUT
IOPIN 496 160 Out
SYMBOL ORgdi 144 144 R0
SYMATTR InstName X1
SYMBOL INVgdi 352 160 R0
SYMATTR InstName X2
