Version 4
SHEET 1 880 680
WIRE 160 112 64 112
WIRE 160 144 128 144
WIRE 384 160 288 160
WIRE 160 176 64 176
WIRE 128 208 128 144
WIRE 128 208 64 208
WIRE 160 208 128 208
FLAG 64 112 A
IOPIN 64 112 In
FLAG 64 176 B
IOPIN 64 176 In
FLAG 64 208 VDD
IOPIN 64 208 In
FLAG 384 160 OUT
IOPIN 384 160 Out
SYMBOL GDICell 224 160 R0
SYMATTR InstName X1
