Version 4
SHEET 1 880 680
WIRE 176 96 -80 96
WIRE -48 128 -80 128
WIRE 176 128 -48 128
WIRE 416 144 304 144
WIRE 176 160 144 160
WIRE 176 192 160 192
WIRE -48 224 -48 128
WIRE -16 224 -48 224
WIRE 144 240 144 160
WIRE 144 240 112 240
WIRE -32 256 -80 256
WIRE -16 256 -32 256
WIRE -32 304 -32 256
WIRE 160 304 160 192
WIRE 160 304 -32 304
FLAG -80 96 A
IOPIN -80 96 In
FLAG -80 128 B
IOPIN -80 128 In
FLAG 416 144 OUT
IOPIN 416 144 Out
FLAG -80 256 VDD
IOPIN -80 256 In
SYMBOL GDICell 240 144 R0
SYMATTR InstName X1
SYMBOL INVgdi 48 240 R0
SYMATTR InstName X2
